// ieee24.dyr
// generators
 1, 'GENROU', 1, 4.767,0.033,0.413,0.07,3,0,2.198,2.097,0.311,0.506,   0.233,0.194,0.036,0.24,/200 MW
 2, 'GENROU', 1, 7.899,0.04,0.597,0.079,4.76,0,2.287,2.174,0.265,0.4643,0.193,0.146,0.073,0.395 /100 MW
 7, 'GENROU', 1, 7.899,0.04,0.597,0.079,4.76,0,2.287,2.174,0.265,0.4643,0.193,0.146,0.073,0.395 /100 MW
13, 'GENROU', 1, 9.48,0.023,0.99,0.035,7.5,0,2.17,2.05,0.22,0.36, 0.175,0.15,0.0869,0.186,/250 MW
15, 'GENROU', 1, 7.203,0.046,0.8,0.069,4.81,1.5,1.8731,1.8482,0.3743,0.5482,0.2893,0.239,0.0526,0.4622,/300 MW
16, 'GENROU', 1, 7.203,0.046,0.8,0.069,4.81,1.5,1.8731,1.8482,0.3743,0.5482,0.2893,0.239,0.0526,0.4622,/300 MW
18, 'GENROU', 1, 5.9410,0.0350,0.5650,0.0700,5.0250,0.0000,1.9948,1.8814,0.2500,0.4450,0.1864,0.1409,0.0670,0.5790 /150 MW
21, 'GENROU', 1, 7.203,0.046,0.8,0.069,4.81,1.5,1.8731,1.8482,0.3743,0.5482,0.2893,0.239,0.0526,0.4622,/300 MW
22, 'GENROU', 1, 9.733,0.047,1.081,0.082,6.35,0,2.059,2.0057,0.2666,0.4519,0.2008,0.1711,0.078,0.35,/180 MW
23, 'GENROU', 1, 9.48,0.023,0.99,0.035,7.5,0,2.17,2.05,0.22,0.36, 0.175,0.15,0.0869,0.186,/250 MW
// 6, 'GENROU', 1,  5.7, 0.03,  1.5, 0.04, 3.58,  0.0, 1.495,  2.37,   0.531, 0.331, 0.02566, 0.304,   0.1,  0.0,/
//14, 'GENROU', 1,  7.3, 0.03,  0.4, 0.04, 3.48,  0.0, 1.54,   2.41,   0.5,   0.3,   0.46538, 0.224,   0.1,  0.0,/
// Exciters
 1,'IEEEX1',1,0.0, 50.0,0.06,0.0,0.0, 5.0, -5.0,  1.0,0.25,  0.09,1.0, 0.0,1.7, 0.5,3.0,2.0,/
 2,'IEEEX1',1,0.0, 60.2,0.05,0.0,0.0, 5.2, -5.0,  1.0,0.41,  0.09,0.5, 0.0,3.0,0.66,4.0,0.88,/
 7,'IEEEX1',1,0.0, 50.0,0.06,0.0,0.0, 5.0, -5.0,  1.0,0.50,  0.09,1.0, 0.0,3.0,0.08,4.0,0.31,/
13,'IEEEX1',1,0.0, 60.2,0.05,0.0,0.0, 5.2, -5.0,  1.0,0.41,  0.09,0.5, 0.0,3.0,0.66,4.0,0.88,/
15,'IEEEX1',1,0.0, 40.0,0.02,0.0,0.0, 6.5, -6.5,  1.0,0.73,  0.09,1.0, 0.0,3.0,0.03,4.0,0.74,/
16,'IEEEX1',1,0.0, 50.0,0.02,0.0,0.0, 5.0, -5.0,  1.0,0.528, 0.09,1.26,0.0,3.0,0.09,4.0,0.28,/
18,'IEEEX1',1,0.0, 40.0,0.02,0.0,0.0, 5.5, -5.5,  1.0,0.40,  0.09,1.0, 0.0,3.0,0.03,4.0,0.85,/
21,'IEEEX1',1,0.0, 50.0,0.02,0.0,0.0, 5.5, -5.5,  1.0,0.40,  0.09,1.0, 0.0,3.0,0.03,4.0,0.85,/
22,'IEEEX1',1,0.0, 40.0,0.02,0.0,0.0, 5.5, -5.5,  1.0,0.40,  0.09,1.0, 0.0,3.0,0.03,4.0,0.85,/
23,'IEEEX1',1,0.0, 60.2,0.05,0.0,0.0, 5.2, -5.0,  1.0,0.41,  0.09,0.5, 0.0,3.0,0.66,4.0,0.88,/
// 6,'IEEEX1',1,0.0, 50.0,0.06,0.0,0.0, 5.0, -5.0,  1.0,0.5,    0.08,1.0,  0.0,3.0,0.13,4.0,0.34,/
//14,'IEEEX1',1,0.0, 50.0,0.02,0.0,0.0, 5.0, -5.0,  1.0,0.471,  0.08,1.25, 0.0,3.0,0.08,4.0,0.25,/
// Governors
 1,'IEESGO',1,0.15,0,0.03,0.25,4.02,0,20.0,0.6,0.5,0.9,0,/
 2,'IEESGO',1,0.15,0,0.03,0.25,4.02,0,20.0,0.6,0.5,0.9,0,/
 7,'IEESGO',1,0.15,0,0.03,0.25,4.02,0,20.0,0.6,0.5,0.9,0,/
13,'IEESGO',1,0.15,0,0.03,0.25,4.02,0,20.0,0.6,0.5,0.9,0,/
15,'IEESGO',1,0.15,0,0.03,0.25,4.02,0,20.0,0.6,0.5,0.9,0,/
16,'IEESGO',1,0.15,0,0.03,0.25,4.02,0,20.0,0.6,0.5,0.9,0,/
18,'IEESGO',1,0.15,0,0.03,0.25,4.02,0,20.0,0.6,0.5,0.9,0,/
21,'IEESGO',1,0.15,0,0.03,0.25,4.02,0,20.0,0.6,0.5,0.9,0,/
22,'IEESGO',1,0.15,0,0.03,0.25,4.02,0,20.0,0.6,0.5,0.9,0,/
23,'IEESGO',1,0.15,0,0.03,0.25,4.02,0,20.0,0.6,0.5,0.9,0,/
// 6,'IEESGO',1,0.15,0,0.03,0.25,4.02,0,20.0,0.6,0.5,0.9,0,/
//14,'IEESGO',1,0.15,0,0.03,0.25,4.02,0,20.0,0.6,0.5,0.9,0,/
// PSS
 1,'PSS2A',1,1,0,3,0,5,1,2,2,0.01,2,4,2,0.25,1,0.5,0.1,30,0.15,0.03,0.15,0.03,0.1,-0.1,/
 2,'PSS2A',1,1,0,3,0,5,1,2,2,0.01,2,4,2,0.25,1,0.5,0.1,30,0.15,0.03,0.15,0.03,0.1,-0.1,/
 7,'PSS2A',1,1,0,3,0,5,1,2,2,0.01,2,4,2,0.2,1,0.5,0.1,30,0.15,0.03,0.15,0.03,0.1,-0.1,/
13,'PSS2A',1,1,0,3,0,5,1,2,2,0.01,2,4,2,0.333,1,0.5,0.1,30,0.15,0.03,0.15,0.03,0.1,-0.1,/
15,'PSS2A',1,1,0,3,0,5,1,2,2,0.01,2,4,2,0.2,1,0.5,0.1,30,0.15,0.03,0.15,0.03,0.1,-0.1,/
16,'PSS2A',1,1,0,3,0,5,1,2,2,0.01,2,4,2,0.333,1,0.5,0.1,30,0.15,0.03,0.15,0.03,0.1,-0.1,/
18,'PSS2A',1,1,0,3,0,5,1,2,2,0.01,2,4,2,0.333,1,0.5,0.1,30,0.15,0.03,0.15,0.03,0.1,-0.1,/
21,'PSS2A',1,1,0,3,0,5,1,2,2,0.01,2,4,2,0.333,1,0.5,0.1,30,0.15,0.03,0.15,0.03,0.1,-0.1,/
22,'PSS2A',1,1,0,3,0,5,1,2,2,0.01,2,4,2,0.333,1,0.5,0.1,30,0.15,0.03,0.15,0.03,0.1,-0.1,/
23,'PSS2A',1,1,0,3,0,5,1,2,2,0.01,2,4,2,0.333,1,0.5,0.1,30,0.15,0.03,0.15,0.03,0.1,-0.1,/
// 6,'PSS2A',1,1,0,3,0,5,1,2,2,0.01,2,4,2,0.4,1,0.5,0.1,30,0.15,0.03,0.15,0.03,0.1,-0.1,/
//14,'PSS2A',1,1,0,3,0,5,1,2,2,0.01,2,4,2,0.333,1,0.5,0.1,30,0.15,0.03,0.15,0.03,0.1,-0.1,/
2,  'LDSHAR' * 49.0 0.1 0.1 48.5 0.1 0.1 48.0 0.1 0.15 0.05    /
