      1 'GENROU' 1     4.7670      0.33000E-01  0.41300      0.70000E-01
          3.0000       0.0000       2.1980       2.0970      0.31100
         0.50600      0.23300      0.19400      0.36000E-01  0.24000      /
      1 'PSS2A'  1          1            0            3            0
               5            1       2.0000       2.0000      0.10000E-01
          2.0000       4.0000       2.0000      0.25000       1.0000
         0.50000      0.10000       30.000      0.15000      0.30000E-01
         0.15000      0.30000E-01  0.10000     -0.10000     /
      1 'IEEEX1' 1     0.0000       50.000      0.60000E-01   0.0000
          0.0000       5.0000      -5.0000       1.0000      0.25000
         0.90000E-01   1.0000       0.0000       1.7000      0.50000
          3.0000       2.0000    /
      1 'IEESGO' 1    0.15000       0.0000      0.30000E-01  0.25000
          4.0200       0.0000       20.000      0.60000      0.50000
         0.90000       0.0000      /
      2 'GENROU' 1     7.8990      0.40000E-01  0.59700      0.79000E-01
          4.7600       0.0000       2.2870       2.1740      0.26500
         0.46430      0.19300      0.14600      0.73000E-01  0.39500      /
      2 'PSS2A'  1          1            0            3            0
               5            1       2.0000       2.0000      0.10000E-01
          2.0000       4.0000       2.0000      0.25000       1.0000
         0.50000      0.10000       30.000      0.15000      0.30000E-01
         0.15000      0.30000E-01  0.10000     -0.10000     /
      2 'IEEEX1' 1     0.0000       60.200      0.50000E-01   0.0000
          0.0000       5.2000      -5.0000       1.0000      0.41000
         0.90000E-01  0.50000       0.0000       3.0000      0.66000
          4.0000      0.88000    /
      2 'IEESGO' 1    0.15000       0.0000      0.30000E-01  0.25000
          4.0200       0.0000       20.000      0.60000      0.50000
         0.90000       0.0000      /
      7 'GENROU' 1     7.8990      0.40000E-01  0.59700      0.79000E-01
          4.7600       0.0000       2.2870       2.1740      0.26500
         0.46430      0.19300      0.14600      0.73000E-01  0.39500      /
      7 'PSS2A'  1          1            0            3            0
               5            1       2.0000       2.0000      0.10000E-01
          2.0000       4.0000       2.0000      0.20000       1.0000
         0.50000      0.10000       30.000      0.15000      0.30000E-01
         0.15000      0.30000E-01  0.10000     -0.10000     /
      7 'IEEEX1' 1     0.0000       50.000      0.60000E-01   0.0000
          0.0000       5.0000      -5.0000       1.0000      0.50000
         0.90000E-01   1.0000       0.0000       3.0000      0.80000E-01
          4.0000      0.31000    /
      7 'IEESGO' 1    0.15000       0.0000      0.30000E-01  0.25000
          4.0200       0.0000       20.000      0.60000      0.50000
         0.90000       0.0000      /
     13 'GENROU' 1     9.4800      0.23000E-01  0.99000      0.35000E-01
          7.5000       0.0000       2.1700       2.0500      0.22000
         0.36000      0.17500      0.15000      0.86900E-01  0.18600      /
     13 'PSS2A'  1          1            0            3            0
               5            1       2.0000       2.0000      0.10000E-01
          2.0000       4.0000       2.0000      0.33300       1.0000
         0.50000      0.10000       30.000      0.15000      0.30000E-01
         0.15000      0.30000E-01  0.10000     -0.10000     /
     13 'IEEEX1' 1     0.0000       60.200      0.50000E-01   0.0000
          0.0000       5.2000      -5.0000       1.0000      0.41000
         0.90000E-01  0.50000       0.0000       3.0000      0.66000
          4.0000      0.88000    /
     13 'IEESGO' 1    0.15000       0.0000      0.30000E-01  0.25000
          4.0200       0.0000       20.000      0.60000      0.50000
         0.90000       0.0000      /
     15 'GENROU' 1     7.2030      0.46000E-01  0.80000      0.69000E-01
          4.8100       1.5000       1.8731       1.8482      0.37430
         0.54820      0.28930      0.23900      0.52600E-01  0.46220      /
     15 'PSS2A'  1          1            0            3            0
               5            1       2.0000       2.0000      0.10000E-01
          2.0000       4.0000       2.0000      0.20000       1.0000
         0.50000      0.10000       30.000      0.15000      0.30000E-01
         0.15000      0.30000E-01  0.10000     -0.10000     /
     15 'IEEEX1' 1     0.0000       40.000      0.20000E-01   0.0000
          0.0000       6.5000      -6.5000       1.0000      0.73000
         0.90000E-01   1.0000       0.0000       3.0000      0.30000E-01
          4.0000      0.74000    /
     15 'IEESGO' 1    0.15000       0.0000      0.30000E-01  0.25000
          4.0200       0.0000       20.000      0.60000      0.50000
         0.90000       0.0000      /
     16 'GENROU' 1     7.2030      0.46000E-01  0.80000      0.69000E-01
          4.8100       1.5000       1.8731       1.8482      0.37430
         0.54820      0.28930      0.23900      0.52600E-01  0.46220      /
     16 'PSS2A'  1          1            0            3            0
               5            1       2.0000       2.0000      0.10000E-01
          2.0000       4.0000       2.0000      0.33300       1.0000
         0.50000      0.10000       30.000      0.15000      0.30000E-01
         0.15000      0.30000E-01  0.10000     -0.10000     /
     16 'IEEEX1' 1     0.0000       50.000      0.20000E-01   0.0000
          0.0000       5.0000      -5.0000       1.0000      0.52800
         0.90000E-01   1.2600       0.0000       3.0000      0.90000E-01
          4.0000      0.28000    /
     16 'IEESGO' 1    0.15000       0.0000      0.30000E-01  0.25000
          4.0200       0.0000       20.000      0.60000      0.50000
         0.90000       0.0000      /
     18 'GENROU' 1     5.9410      0.35000E-01  0.56500      0.70000E-01
          5.0250       0.0000       1.9948       1.8814      0.25000
         0.44500      0.18640      0.14090      0.67000E-01  0.57900      /
     18 'PSS2A'  1          1            0            3            0
               5            1       2.0000       2.0000      0.10000E-01
          2.0000       4.0000       2.0000      0.33300       1.0000
         0.50000      0.10000       30.000      0.15000      0.30000E-01
         0.15000      0.30000E-01  0.10000     -0.10000     /
     18 'IEEEX1' 1     0.0000       40.000      0.20000E-01   0.0000
          0.0000       5.5000      -5.5000       1.0000      0.40000
         0.90000E-01   1.0000       0.0000       3.0000      0.30000E-01
          4.0000      0.85000    /
     21 'GENROU' 1     7.2030      0.46000E-01  0.80000      0.69000E-01
          4.8100       1.5000       1.8731       1.8482      0.37430
         0.54820      0.28930      0.23900      0.52600E-01  0.46220      /
     21 'PSS2A'  1          1            0            3            0
               5            1       2.0000       2.0000      0.10000E-01
          2.0000       4.0000       2.0000      0.33300       1.0000
         0.50000      0.10000       30.000      0.15000      0.30000E-01
         0.15000      0.30000E-01  0.10000     -0.10000     /
     21 'IEEEX1' 1     0.0000       50.000      0.20000E-01   0.0000
          0.0000       5.5000      -5.5000       1.0000      0.40000
         0.90000E-01   1.0000       0.0000       3.0000      0.30000E-01
          4.0000      0.85000    /
     22 'GENROU' 1     9.7330      0.47000E-01   1.0810      0.82000E-01
          6.3500       0.0000       2.0590       2.0057      0.26660
         0.45190      0.20080      0.17110      0.78000E-01  0.35000      /
     22 'PSS2A'  1          1            0            3            0
               5            1       2.0000       2.0000      0.10000E-01
          2.0000       4.0000       2.0000      0.33300       1.0000
         0.50000      0.10000       30.000      0.15000      0.30000E-01
         0.15000      0.30000E-01  0.10000     -0.10000     /
     22 'IEEEX1' 1     0.0000       40.000      0.20000E-01   0.0000
          0.0000       5.5000      -5.5000       1.0000      0.40000
         0.90000E-01   1.0000       0.0000       3.0000      0.30000E-01
          4.0000      0.85000    /
     23 'GENROU' 1     9.4800      0.23000E-01  0.99000      0.35000E-01
          7.5000       0.0000       2.1700       2.0500      0.22000
         0.36000      0.17500      0.15000      0.86900E-01  0.18600      /
     23 'PSS2A'  1          1            0            3            0
               5            1       2.0000       2.0000      0.10000E-01
          2.0000       4.0000       2.0000      0.33300       1.0000
         0.50000      0.10000       30.000      0.15000      0.30000E-01
         0.15000      0.30000E-01  0.10000     -0.10000     /
         0.88000    /
      5 'LDSHBL' 1     49.000      0.10000      0.10000       48.500
         0.10000      0.10000       48.000      0.10000      0.15000
         0.50000    /
